V1 5 0 2
V2 3 2 0.2
V3 7 6 2
R1 1 5 1.5
R2 4 6 1
R3 7 2 10
V5 5 4 5
R4 5 6 0.1
R5 2 8 1.5
C1 3 1 0.1
C2 5 6 0.2
R6 3 5 0.2
R8 4 0 10
I1 4 7 3
I2 0 6 1e-2
C3 7 0 0.1
C4 2 0 0.2
L1 4 8 5
L2 12 2 3

.OPTIONS ITER

.DC V1 1 5 0.1
.PLOT V(4)


.DC V3 5 10 0.1
.PLOT V(2)
